Version 4
SHEET 1 880 736
WIRE 240 -64 80 -64
WIRE 384 -64 304 -64
WIRE 592 -64 464 -64
WIRE 80 80 80 -64
WIRE 192 80 80 80
WIRE 384 80 192 80
WIRE 592 96 592 -64
WIRE 592 96 448 96
WIRE 672 96 592 96
WIRE 384 112 352 112
WIRE 80 128 80 80
WIRE 192 128 192 80
WIRE -384 160 -384 144
WIRE -304 160 -384 160
WIRE -224 160 -224 144
WIRE -224 160 -304 160
WIRE -304 192 -304 160
WIRE 352 224 352 112
WIRE 416 224 352 224
WIRE 592 224 592 96
WIRE 592 224 496 224
WIRE 192 240 192 208
WIRE 80 256 80 192
WIRE 352 256 352 224
WIRE 592 272 592 224
WIRE 352 352 352 336
WIRE 192 368 192 320
WIRE 592 368 592 336
WIRE 480 464 400 464
WIRE 592 464 592 432
WIRE 592 464 480 464
WIRE 480 480 480 464
WIRE 592 480 592 464
WIRE 352 608 352 528
WIRE 480 608 480 544
WIRE 592 608 592 560
FLAG 192 368 0
FLAG 80 256 0
FLAG 592 608 0
FLAG 480 608 0
FLAG 352 608 0
FLAG 672 96 Vo
FLAG 416 128 Vcc+
FLAG 416 64 Vcc-
FLAG -304 192 0
FLAG -224 64 Vcc-
FLAG -384 64 Vcc+
SYMBOL cap 64 128 R0
SYMATTR InstName C1
SYMATTR Value 1n
SYMBOL cap 304 -80 R90
WINDOW 0 0 32 VBottom 2
WINDOW 3 32 32 VTop 2
SYMATTR InstName C2
SYMATTR Value 1n
SYMBOL res 480 -80 R90
WINDOW 0 0 56 VBottom 2
WINDOW 3 32 56 VTop 2
SYMATTR InstName R2
SYMATTR Value 2k
SYMBOL res 336 240 R0
SYMATTR InstName R3
SYMATTR Value 42k
SYMBOL res 512 208 R90
WINDOW 0 0 56 VBottom 2
WINDOW 3 32 56 VTop 2
SYMATTR InstName R4
SYMATTR Value 100k
SYMBOL diode 608 336 R180
WINDOW 0 24 64 Left 2
WINDOW 3 24 0 Left 2
SYMATTR InstName D1
SYMATTR Value 1N4148
SYMBOL zener 576 368 R0
SYMATTR InstName D2
SYMATTR Value 1N750
SYMBOL res 576 464 R0
SYMATTR InstName R5
SYMATTR Value 1Meg
SYMBOL cap 464 480 R0
SYMATTR InstName C3
SYMATTR Value 1µ
SYMBOL njf 400 528 R180
SYMATTR InstName J1
SYMATTR Value MPF102
SYMBOL Opamps\\opamp2 416 160 M180
SYMATTR InstName U1
SYMATTR Value TL082
SYMBOL voltage -384 48 R0
WINDOW 123 0 0 Left 0
WINDOW 39 0 0 Left 0
SYMATTR InstName V1
SYMATTR Value 15
SYMBOL voltage -224 160 R180
WINDOW 0 24 96 Left 2
WINDOW 3 24 16 Left 2
WINDOW 123 0 0 Left 0
WINDOW 39 0 0 Left 0
SYMATTR InstName V2
SYMATTR Value 15
SYMBOL res 176 112 R0
SYMATTR InstName R1
SYMATTR Value 2k
SYMBOL res 176 224 R0
SYMATTR InstName R6
SYMATTR Value 250
SYMBOL res 336 336 R0
SYMATTR InstName R7
SYMATTR Value 5k
TEXT -304 320 Left 2 !.tran 0 10ms 8ms
TEXT -312 400 Left 2 !.lib opamp.sub
TEXT -312 352 Left 2 !.inc TL082.MOD
TEXT -312 376 Left 2 !.inc MPF102.sub
TEXT -312 424 Left 2 !.ic V(n001)=1v
TEXT -312 536 Left 2 ;R6=0 => fo=72kHz
TEXT -312 632 Left 2 ;R6=2k => fo=46kHz
TEXT -312 608 Left 2 ;R6=1k => fo=56kHz
TEXT -312 584 Left 2 ;R6=500 => fo=63kHz
TEXT -312 560 Left 2 ;R6=250 => fo=67.5kHz
TEXT -312 504 Left 2 ;R6 / 67.5kHz:
