Version 4
SHEET 1 880 680
WIRE 240 -64 80 -64
WIRE 384 -64 304 -64
WIRE 592 -64 464 -64
WIRE 80 80 80 -64
WIRE 192 80 80 80
WIRE 384 80 192 80
WIRE 592 96 592 -64
WIRE 592 96 448 96
WIRE 672 96 592 96
WIRE 384 112 352 112
WIRE 80 128 80 80
WIRE 192 128 192 80
WIRE 352 224 352 112
WIRE 416 224 352 224
WIRE 592 224 592 96
WIRE 592 224 496 224
WIRE 80 256 80 192
WIRE 192 256 192 208
WIRE 352 272 352 224
WIRE 592 272 592 224
WIRE 592 368 592 336
WIRE 352 432 352 352
WIRE 480 464 400 464
WIRE 592 464 592 432
WIRE 592 464 480 464
WIRE 480 480 480 464
WIRE 592 480 592 464
WIRE 352 608 352 528
WIRE 480 608 480 544
WIRE 592 608 592 560
FLAG 192 256 0
FLAG 80 256 0
FLAG 592 608 0
FLAG 480 608 0
FLAG 352 608 0
FLAG 672 96 Vo
SYMBOL cap 64 128 R0
SYMATTR InstName C1
SYMBOL res 176 112 R0
SYMATTR InstName R1
SYMBOL cap 304 -80 R90
WINDOW 0 0 32 VBottom 2
WINDOW 3 32 32 VTop 2
SYMATTR InstName C2
SYMBOL res 480 -80 R90
WINDOW 0 0 56 VBottom 2
WINDOW 3 32 56 VTop 2
SYMATTR InstName R2
SYMBOL Opamps\\opamp 416 160 M180
SYMATTR InstName U1
SYMBOL res 336 256 R0
SYMATTR InstName R3
SYMBOL res 512 208 R90
WINDOW 0 0 56 VBottom 2
WINDOW 3 32 56 VTop 2
SYMATTR InstName R4
SYMBOL diode 608 336 R180
WINDOW 0 24 64 Left 2
WINDOW 3 24 0 Left 2
SYMATTR InstName D1
SYMBOL zener 576 368 R0
SYMATTR InstName D2
SYMBOL res 576 464 R0
SYMATTR InstName R5
SYMBOL cap 464 480 R0
SYMATTR InstName C3
SYMBOL njf 400 528 R180
SYMATTR InstName J1
