Version 4
SHEET 1 880 680
WIRE -384 48 -576 48
WIRE -304 48 -384 48
WIRE -208 48 -224 48
WIRE -112 48 -208 48
WIRE 64 48 -48 48
WIRE -384 64 -384 48
WIRE -576 112 -576 48
WIRE -208 176 -208 48
WIRE -192 176 -208 176
WIRE -128 176 -192 176
WIRE -384 192 -384 144
WIRE -336 192 -384 192
WIRE 64 192 64 48
WIRE 64 192 -64 192
WIRE -336 208 -336 192
WIRE -128 208 -336 208
WIRE 64 256 64 192
WIRE 128 256 64 256
WIRE 304 272 304 256
WIRE 304 272 192 272
WIRE 384 272 304 272
WIRE 400 272 384 272
WIRE -384 288 -384 272
WIRE 128 288 64 288
WIRE -192 304 -192 176
WIRE 304 304 304 272
WIRE 64 400 64 288
WIRE 304 400 304 384
WIRE 304 400 64 400
WIRE 304 416 304 400
WIRE -336 432 -336 416
WIRE -272 432 -336 432
WIRE 64 432 64 400
WIRE 64 432 -128 432
WIRE -272 448 -272 432
WIRE -336 464 -336 432
FLAG -272 448 0
FLAG -336 544 -vcc
FLAG -336 336 +vcc
FLAG 160 240 +vcc
FLAG 304 496 0
FLAG 384 272 vo
FLAG 160 304 -vcc
FLAG -576 192 0
FLAG -384 288 0
FLAG -192 480 0
FLAG -96 160 +vcc
FLAG -96 224 -vcc
FLAG 304 176 0
SYMBOL Opamps\\opamp2 160 208 R0
SYMATTR InstName U3
SYMATTR Value TL082
SYMBOL voltage -336 320 R0
WINDOW 123 0 0 Left 0
WINDOW 39 0 0 Left 0
SYMATTR InstName V2
SYMATTR Value 15
SYMBOL voltage -336 448 R0
WINDOW 123 0 0 Left 0
WINDOW 39 0 0 Left 0
SYMATTR InstName V3
SYMATTR Value 15
SYMBOL res 288 400 R0
SYMATTR InstName R2
SYMATTR Value 3.6k
SYMBOL voltage -576 96 R0
WINDOW 123 24 124 Left 2
WINDOW 39 0 0 Left 0
SYMATTR InstName V4
SYMATTR Value SINE(10 5 1k)
SYMBOL Opamps\\opamp2 -96 128 R0
SYMATTR InstName U1
SYMATTR Value TL082
SYMBOL cap -48 32 R90
WINDOW 0 0 32 VBottom 2
WINDOW 3 32 32 VTop 2
SYMATTR InstName C1
SYMATTR Value 1.25n
SYMBOL res -400 48 R0
SYMATTR InstName R3
SYMATTR Value 10k
SYMBOL res -400 176 R0
SYMATTR InstName R4
SYMATTR Value 10k
SYMBOL res -208 32 R90
WINDOW 0 0 56 VBottom 2
WINDOW 3 32 56 VTop 2
SYMATTR InstName R5
SYMATTR Value 20k
SYMBOL res -176 400 R180
WINDOW 0 36 76 Left 2
WINDOW 3 36 40 Left 2
SYMATTR InstName R6
SYMATTR Value 10k
SYMBOL npn -128 384 M0
SYMATTR InstName Q1
SYMATTR Value BC547B
SYMBOL res 288 160 R0
SYMATTR InstName R1
SYMATTR Value 1.8k
SYMBOL res 288 288 R0
SYMATTR InstName R7
SYMATTR Value 1.8k
TEXT -370 638 Left 2 !.tran 0 10m 0
TEXT -144 600 Left 2 !.inc C:\\Users\\lugfe\\Documents\\LTspiceXVII\\lib\\sub\\TL082.301
