Version 4
SHEET 1 1196 680
WIRE 176 48 -16 48
WIRE 352 64 352 48
WIRE 352 64 240 64
WIRE 432 64 352 64
WIRE 448 64 432 64
WIRE 176 80 112 80
WIRE 352 80 352 64
WIRE -16 96 -16 48
WIRE 112 192 112 80
WIRE 352 192 352 160
WIRE 352 192 112 192
WIRE 352 208 352 192
WIRE -288 224 -288 208
WIRE -224 224 -288 224
WIRE -224 240 -224 224
WIRE -288 256 -288 224
FLAG -224 240 0
FLAG -288 336 -vcc
FLAG -288 128 +vcc
FLAG 208 32 +vcc
FLAG 352 288 0
FLAG -16 176 0
FLAG 432 64 vo
FLAG 208 96 -vcc
SYMBOL voltage -16 80 R0
WINDOW 123 24 124 Left 2
WINDOW 39 0 0 Left 0
SYMATTR InstName V1
SYMATTR Value SINE(0 4 1k)
SYMBOL Opamps\\opamp2 208 0 R0
SYMATTR InstName U1
SYMATTR Value TL082
SYMBOL voltage -288 112 R0
WINDOW 123 0 0 Left 0
WINDOW 39 0 0 Left 0
SYMATTR InstName V2
SYMATTR Value 15
SYMBOL voltage -288 240 R0
WINDOW 123 0 0 Left 0
WINDOW 39 0 0 Left 0
SYMATTR InstName V3
SYMATTR Value 15
SYMBOL res 336 64 R0
SYMATTR InstName R1
SYMATTR Value 5k
SYMBOL res 336 192 R0
SYMATTR InstName R2
SYMATTR Value 1k
TEXT 528 152 Left 2 !.inc C:\\Users\\lugfe\\Documents\\LTspiceXVII\\lib\\sub\\TL082.301
TEXT -322 430 Left 2 !.tran 0 10m 0
