Version 4
SHEET 1 940 720
WIRE 592 -96 384 -96
WIRE -400 -80 -400 -128
WIRE 80 -80 48 -80
WIRE 176 -80 160 -80
WIRE 384 -48 384 -96
WIRE 448 -48 384 -48
WIRE 592 -32 592 -96
WIRE 592 -32 512 -32
WIRE 736 -32 592 -32
WIRE 48 -16 48 -80
WIRE 48 -16 0 -16
WIRE 96 -16 48 -16
WIRE 176 -16 176 -80
WIRE 176 -16 160 -16
WIRE 192 -16 176 -16
WIRE 448 -16 192 -16
WIRE -192 112 -256 112
WIRE 0 112 0 -16
WIRE 0 112 -112 112
WIRE 80 112 0 112
WIRE -400 128 -400 0
WIRE -256 128 -256 112
WIRE -256 128 -400 128
WIRE 192 128 192 -16
WIRE 192 128 144 128
WIRE 448 128 192 128
WIRE -256 144 -256 128
WIRE -192 144 -256 144
WIRE -64 144 -112 144
WIRE 80 144 -64 144
WIRE 640 144 512 144
WIRE 448 160 416 160
WIRE -64 240 -64 144
WIRE 0 240 0 112
WIRE 272 288 256 288
WIRE 304 288 272 288
WIRE 416 288 416 160
WIRE 416 288 384 288
WIRE 448 288 416 288
WIRE 640 288 640 144
WIRE 640 288 528 288
WIRE -800 304 -800 256
WIRE -640 304 -640 256
WIRE -432 304 -432 256
WIRE 0 384 0 320
WIRE -432 416 -432 384
WIRE -384 416 -432 416
WIRE 64 432 48 432
WIRE 80 432 64 432
WIRE 448 432 80 432
WIRE 640 432 640 288
WIRE 640 432 528 432
WIRE -800 448 -800 384
WIRE -640 448 -640 384
WIRE -432 480 -432 416
WIRE -64 528 -64 320
WIRE 0 528 0 480
WIRE 0 528 -64 528
WIRE -64 560 -64 528
FLAG -64 560 0
FLAG 0 384 C
FLAG 0 480 E
FLAG 80 432 B
FLAG 736 -32 Vo
FLAG 480 112 vcc
FLAG 480 -64 vcc
FLAG 112 96 vcc
FLAG -640 256 vcc
FLAG -432 560 0
FLAG -432 256 vcc
FLAG -384 416 Vref
FLAG -400 0 Vin
FLAG -400 -128 0
FLAG -640 448 0
FLAG -800 256 -vcc
FLAG -800 448 0
FLAG 272 288 Vref
FLAG 112 160 -vcc
FLAG 480 0 -vcc
FLAG 480 176 -vcc
SYMBOL Opamps\\opamp2 112 64 R0
SYMATTR InstName U1
SYMATTR Value TL082
SYMBOL Opamps\\opamp2 480 80 R0
SYMATTR InstName U2
SYMATTR Value TL082
SYMBOL Opamps\\opamp2 480 -96 R0
SYMATTR InstName U3
SYMATTR Value TL082
SYMBOL res -96 96 R90
WINDOW 0 0 56 VBottom 2
WINDOW 3 32 56 VTop 2
SYMATTR InstName R1
SYMATTR Value 10k
SYMBOL res -96 128 R90
WINDOW 0 0 56 VBottom 2
WINDOW 3 32 56 VTop 2
SYMATTR InstName R2
SYMATTR Value 10k
SYMBOL res -80 224 R0
SYMATTR InstName R3
SYMATTR Value 10k
SYMBOL res -16 224 R0
SYMATTR InstName R4
SYMATTR Value 5k
SYMBOL res 400 272 R90
WINDOW 0 0 56 VBottom 2
WINDOW 3 32 56 VTop 2
SYMATTR InstName R5
SYMATTR Value 3.6k
SYMBOL res 544 272 R90
WINDOW 0 0 56 VBottom 2
WINDOW 3 32 56 VTop 2
SYMATTR InstName R6
SYMATTR Value 1.8k
SYMBOL res 432 448 R270
WINDOW 0 32 56 VTop 2
WINDOW 3 0 56 VBottom 2
SYMATTR InstName R7
SYMATTR Value 10k
SYMBOL cap 160 -32 R90
WINDOW 0 0 32 VBottom 2
WINDOW 3 32 32 VTop 2
SYMATTR InstName C1
SYMATTR Value 1.25n
SYMBOL res -448 288 R0
SYMATTR InstName R8
SYMATTR Value 10k
SYMBOL res -448 464 R0
SYMATTR InstName R9
SYMATTR Value 10k
SYMBOL voltage -400 16 R180
WINDOW 0 24 96 Left 2
WINDOW 3 24 16 Left 2
WINDOW 123 0 0 Left 0
WINDOW 39 0 0 Left 0
SYMATTR InstName V3
SYMATTR Value SINE(0 15 1k)
SYMBOL Misc\\battery -640 288 R0
WINDOW 123 0 0 Left 0
WINDOW 39 0 0 Left 0
SYMATTR InstName V2
SYMATTR Value 15
SYMBOL npn 64 384 M0
SYMATTR InstName Q1
SYMATTR Value BC547C
SYMBOL Misc\\battery -800 400 M180
WINDOW 123 0 0 Left 0
WINDOW 39 0 0 Left 0
SYMATTR InstName V1
SYMATTR Value 15
TEXT 184 552 Left 2 !.inc C:\\Users\\lugfe\\Documents\\LTspiceXVII\\lib\\sub\\TL082.301
TEXT -744 64 Left 2 !.tran 0 10m 0
